Cases/test/data/branch_specific/scenario_results_case_ACTIVSg500.csv
line_id,y_cos_f_w1_vm_from,y_cos_f_w2_vm_to,y_cos_f_w3_theta_i,y_cos_f_w4_theta_j,y_cos_f_bias,y_sin_f_w1_vm_from,y_sin_f_w2_vm_to,y_sin_f_w3_theta_i,y_sin_f_w4_theta_j,y_sin_f_bias
2_1,0.0,0.0,0.0,0.0,1.1534539109854027,0.0,0.0,0.0,0.0,-0.001283332899999991
3_479,0.0,0.0,0.0,0.0,1.1696050969879186,0.0,0.0,0.0,0.0,-0.08272176919981879
4_3,0.0,0.0,0.0,0.0,1.1452125063594134,0.0,0.0,0.0,0.0,-0.004423204599999963
6_5,0.0,0.0,0.0,0.0,1.1654766779313743,0.0,0.0,0.0,0.0,-0.00010959069999990297
7_232,0.0,0.0,0.0,0.0,1.194861393449254,0.0,0.0,0.0,0.0,0.03377274372296326
7_262,0.0,0.0,0.0,0.0,1.1946948455797,0.0,0.0,0.0,0.0,0.03895264522520309
8_7,0.0,0.0,0.0,0.0,1.1941406033909023,0.0,0.0,0.0,0.0,-0.033037217592281176
8_287,0.0,0.0,0.0,0.0,1.1759685528569994,0.0,0.0,0.0,0.0,0.07036420398422431
8_457,0.0,0.0,0.0,0.0,1.18424531616489,0.0,0.0,0.0,0.0,0.010770734249143953
9_7,0.0,0.0,0.0,0.0,1.2039852114074294,0.0,0.0,0.0,0.0,0.05251066659029572
10_349,0.0,0.0,0.0,0.0,1.1716596750777835,0.0,0.0,0.0,0.0,-0.007257122790305893
11_10,0.0,0.0,0.0,0.0,1.1689323170249095,0.0,0.0,0.0,0.0,-7.474170000007186e-05
12_216,0.0,0.0,0.0,0.0,1.1279739528774335,0.0,0.0,0.0,0.0,0.01126150317734079
12_304,0.0,0.0,0.0,0.0,1.1227166975788871,0.0,0.0,0.0,0.0,0.018465508515920517
12_441,0.0,0.0,0.0,0.0,1.1361548590658666,0.0,0.0,0.0,0.0,-0.023005531023298765
13_12,0.0,0.0,0.0,0.0,1.1286903608958214,0.0,0.0,0.0,0.0,-0.0011028550999999788
15_14,0.0,0.0,0.0,0.0,1.1865080505609615,0.0,0.0,0.0,0.0,-0.048169620824493484
15_91,0.0,0.0,0.0,0.0,1.1705214906373036,0.0,0.0,0.0,0.0,0.02798852764609798
15_230,0.0,0.0,0.0,0.0,1.1712524966967703,0.0,0.0,0.0,0.0,0.1228808186370709
15_369,0.0,0.0,0.0,0.0,1.1767726172935635,0.0,0.0,0.0,0.0,0.009584502370529772
15_473,0.0,0.0,0.0,0.0,1.175461662867828,0.0,0.0,0.0,0.0,0.017723966281182314
16_14,0.0,0.0,0.0,0.0,1.2010730314486848,0.0,0.0,0.0,0.0,0.05322007391561426
17_14,0.0,0.0,0.0,0.0,1.200560944855337,0.0,0.0,0.0,0.0,0.06373555637268899
18_14,0.0,0.0,0.0,0.0,1.199561186326212,0.0,0.0,0.0,0.0,0.08038508121839973
19_112,0.0,0.0,0.0,0.0,1.1677727060511924,0.0,0.0,0.0,0.0,-0.009866740160139989
19_272,0.0,0.0,0.0,0.0,1.1785783844731599,0.0,0.0,0.0,0.0,0.0047433511642651655
20_19,0.0,0.0,0.0,0.0,1.172656050682027,0.0,0.0,0.0,0.0,-0.0001698783000000316
21_112,0.0,0.0,0.0,0.0,1.1564522328865896,0.0,0.0,0.0,0.0,0.025856450751661157
21_196,0.0,0.0,0.0,0.0,1.1593957754618092,0.0,0.0,0.0,0.0,-0.03999520299387649
22_21,0.0,0.0,0.0,0.0,1.1484407636149931,0.0,0.0,0.0,0.0,-0.004486992500000001
23_386,0.0,0.0,0.0,0.0,1.1862894255492331,0.0,0.0,0.0,0.0,-0.058700503462216586
23_464,0.0,0.0,0.0,0.0,1.1866918115297944,0.0,0.0,0.0,0.0,-0.001821728374537948
23_471,0.0,0.0,0.0,0.0,1.1868145016381242,0.0,0.0,0.0,0.0,-0.007701596217394576
24_23,0.0,0.0,0.0,0.0,1.1718350735104068,0.0,0.0,0.0,0.0,-0.052312589492116195
24_360,0.0,0.0,0.0,0.0,1.1506512158426316,0.0,0.0,0.0,0.0,0.03341882016272177
25_24,0.0,0.0,0.0,0.0,1.159684544140329,0.0,0.0,0.0,0.0,-7.900189999996939e-05
26_24,0.0,0.0,0.0,0.0,1.1593825652608014,0.0,0.0,0.0,0.0,-0.0007751599999999923
27_68,0.0,0.0,0.0,0.0,1.1659159560959917,0.0,0.0,0.0,0.0,-0.05362599741069859
27_382,0.0,0.0,0.0,0.0,1.1707785914594642,0.0,0.0,0.0,0.0,0.00990209508116423
28_27,0.0,0.0,0.0,0.0,1.1752007589657756,0.0,0.0,0.0,0.0,-0.002378637300000126
29_491,0.0,0.0,0.0,0.0,1.1659545307661756,0.0,0.0,0.0,0.0,0.008487143735259318
30_29,0.0,0.0,0.0,0.0,1.1555082035930306,0.0,0.0,0.0,0.0,-0.0031327850000000502
31_85,0.0,0.0,0.0,0.0,1.2012782242090947,0.0,0.0,0.0,0.0,-0.022222435642547916
31_189,0.0,0.0,0.0,0.0,1.2047038309608982,0.0,0.0,0.0,0.0,0.0021813261176837026
31_205,0.0,0.0,0.0,0.0,1.1971878603398045,0.0,0.0,0.0,0.0,-0.006940338762825996
31_218,0.0,0.0,0.0,0.0,1.2007990191441142,0.0,0.0,0.0,0.0,-0.026724390016987145
32_31,0.0,0.0,0.0,0.0,1.2098497671156139,0.0,0.0,0.0,0.0,-0.00031842040000004516
34_33,0.0,0.0,0.0,0.0,1.1473635475017485,0.0,0.0,0.0,0.0,-0.0007793792000000142
35_399,0.0,0.0,0.0,0.0,1.1769636091387377,0.0,0.0,0.0,0.0,-0.019596340109783197
36_35,0.0,0.0,0.0,0.0,1.1725342481397458,0.0,0.0,0.0,0.0,-0.0012461102000000152
37_176,0.0,0.0,0.0,0.0,1.1535027516307497,0.0,0.0,0.0,0.0,0.03231284293475981
38_37,0.0,0.0,0.0,0.0,1.1523202023380643,0.0,0.0,0.0,0.0,-4.8061000000998716e-06
39_332,0.0,0.0,0.0,0.0,1.1890680318363098,0.0,0.0,0.0,0.0,-0.00139449633332596
39_428,0.0,0.0,0.0,0.0,1.1914971006378632,0.0,0.0,0.0,0.0,-0.004373050532345993
40_39,0.0,0.0,0.0,0.0,1.1830984968993499,0.0,0.0,0.0,0.0,-0.022167097036271396
40_131,0.0,0.0,0.0,0.0,1.1742561181750586,0.0,0.0,0.0,0.0,0.007853215135992228
41_40,0.0,0.0,0.0,0.0,1.1759758349726037,0.0,0.0,0.0,0.0,-0.002177395099999953
42_191,0.0,0.0,0.0,0.0,1.181816802101936,0.0,0.0,0.0,0.0,0.03922742220299548
43_42,0.0,0.0,0.0,0.0,1.1863302204440347,0.0,0.0,0.0,0.0,-0.00013265759999999305
44_1,0.0,0.0,0.0,0.0,1.1597449620677323,0.0,0.0,0.0,0.0,0.017743739987672136
44_200,0.0,0.0,0.0,0.0,1.167926542650683,0.0,0.0,0.0,0.0,-0.007228857527139156
45_44,0.0,0.0,0.0,0.0,1.1657158839652828,0.0,0.0,0.0,0.0,-7.524300000001268e-05
46_156,0.0,0.0,0.0,0.0,1.1289700057234557,0.0,0.0,0.0,0.0,0.024913144388491064
47_46,0.0,0.0,0.0,0.0,1.143599253378912,0.0,0.0,0.0,0.0,-0.0014296698000000297
49_48,0.0,0.0,0.0,0.0,1.1590079720019368,0.0,0.0,0.0,0.0,0.003539701751996123
50_48,0.0,0.0,0.0,0.0,1.1592957182141606,0.0,0.0,0.0,0.0,0.004166046616320739
51_48,0.0,0.0,0.0,0.0,1.1571441129292788,0.0,0.0,0.0,0.0,-1.2259800000046862e-05
52_48,0.0,0.0,0.0,0.0,1.1567955766169216,0.0,0.0,0.0,0.0,-0.0007430057999999239
53_276,0.0,0.0,0.0,0.0,1.1722258140187505,0.0,0.0,0.0,0.0,0.009313743033568578
54_53,0.0,0.0,0.0,0.0,1.1706476594153943,0.0,0.0,0.0,0.0,-0.0010024301000000726
55_66,0.0,0.0,0.0,0.0,1.18166115981589,0.0,0.0,0.0,0.0,-0.015329449875289787
55_500,0.0,0.0,0.0,0.0,1.1776372482376742,0.0,0.0,0.0,0.0,0.014182078664945558
56_55,0.0,0.0,0.0,0.0,1.179807126720862,0.0,0.0,0.0,0.0,-7.062900000008675e-05
57_123,0.0,0.0,0.0,0.0,1.1738829192121694,0.0,0.0,0.0,0.0,-0.10705779596302634
58_57,0.0,0.0,0.0,0.0,1.1545447997040645,0.0,0.0,0.0,0.0,-0.04984355551239328
58_253,0.0,0.0,0.0,0.0,1.1369778699556587,0.0,0.0,0.0,0.0,0.040685549211931474
59_58,0.0,0.0,0.0,0.0,1.1463211280315877,0.0,0.0,0.0,0.0,-0.005190375199999923
60_131,0.0,0.0,0.0,0.0,1.1711360218030276,0.0,0.0,0.0,0.0,-0.002340196475618784
61_60,0.0,0.0,0.0,0.0,1.1706563693237202,0.0,0.0,0.0,0.0,-6.7714999999823625e-06
62_3,0.0,0.0,0.0,0.0,1.1516121059897233,0.0,0.0,0.0,0.0,0.0027558761484015896
62_457,0.0,0.0,0.0,0.0,1.1667449744500875,0.0,0.0,0.0,0.0,-0.04712118330592887
63_62,0.0,0.0,0.0,0.0,1.155849720418251,0.0,0.0,0.0,0.0,0.0
64_62,0.0,0.0,0.0,0.0,1.1553150731962882,0.0,0.0,0.0,0.0,-0.0010774224999999524
65_297,0.0,0.0,0.0,0.0,1.1835731019020943,0.0,0.0,0.0,0.0,-0.0057958238758160875
66_65,0.0,0.0,0.0,0.0,1.186153341876011,0.0,0.0,0.0,0.0,-0.031022233847531833
66_308,0.0,0.0,0.0,0.0,1.1758248548429964,0.0,0.0,0.0,0.0,0.0403408205518499
67_66,0.0,0.0,0.0,0.0,1.1836116748008567,0.0,0.0,0.0,0.0,-0.0001454421000000189
68_295,0.0,0.0,0.0,0.0,1.1557137990053052,0.0,0.0,0.0,0.0,-0.025799809100528898
68_314,0.0,0.0,0.0,0.0,1.1572979083530581,0.0,0.0,0.0,0.0,-0.009262619777595687
69_68,0.0,0.0,0.0,0.0,1.1577698470841442,0.0,0.0,0.0,0.0,-0.0006478219999999944
70_490,0.0,0.0,0.0,0.0,1.137079061490731,0.0,0.0,0.0,0.0,-0.003324656674472013
71_70,0.0,0.0,0.0,0.0,1.1354379266170322,0.0,0.0,0.0,0.0,0.0017729384420870097
72_70,0.0,0.0,0.0,0.0,1.1358762376236,0.0,0.0,0.0,0.0,0.0028737174331746477
73_70,0.0,0.0,0.0,0.0,1.1363485998907792,0.0,0.0,0.0,0.0,0.003753864276658385
74_189,0.0,0.0,0.0,0.0,1.1959179647230382,0.0,0.0,0.0,0.0,0.005364636776245462
75_74,0.0,0.0,0.0,0.0,1.192357421718263,0.0,0.0,0.0,0.0,-0.0001687326000000119
76_37,0.0,0.0,0.0,0.0,1.1516410044351886,0.0,0.0,0.0,0.0,0.01570562154641241
77_76,0.0,0.0,0.0,0.0,1.151064768257519,0.0,0.0,0.0,0.0,-0.00021739599999998332
78_328,0.0,0.0,0.0,0.0,1.153100888049051,0.0,0.0,0.0,0.0,0.07819551947259895
78_387,0.0,0.0,0.0,0.0,1.172390992350161,0.0,0.0,0.0,0.0,-0.035608754760163036
79_78,0.0,0.0,0.0,0.0,1.1666896588424147,0.0,0.0,0.0,0.0,-1.1838199999930877e-05
80_65,0.0,0.0,0.0,0.0,1.193687392196036,0.0,0.0,0.0,0.0,0.008013041365756163
81_42,0.0,0.0,0.0,0.0,1.1880861886573522,0.0,0.0,0.0,0.0,0.015521789145322713
81_80,0.0,0.0,0.0,0.0,1.1930337046538007,0.0,0.0,0.0,0.0,-0.047712817200282656
82_80,0.0,0.0,0.0,0.0,1.1987161700580258,0.0,0.0,0.0,0.0,0.11252510227118245
83_33,0.0,0.0,0.0,0.0,1.1458911697548748,0.0,0.0,0.0,0.0,-0.00679416208945118
83_342,0.0,0.0,0.0,0.0,1.151075210357685,0.0,0.0,0.0,0.0,-0.018377978254805572
84_83,0.0,0.0,0.0,0.0,1.1430909377601977,0.0,0.0,0.0,0.0,-0.002140031099999873
86_85,0.0,0.0,0.0,0.0,1.1927293434372932,0.0,0.0,0.0,0.0,-0.0006556071000000171
87_141,0.0,0.0,0.0,0.0,1.126410315765571,0.0,0.0,0.0,0.0,0.05706504773601595
87_143,0.0,0.0,0.0,0.0,1.1409886058026293,0.0,0.0,0.0,0.0,-0.10190256771303756
88_87,0.0,0.0,0.0,0.0,1.12764120988085,0.0,0.0,0.0,0.0,-0.00017865050000004764
89_187,0.0,0.0,0.0,0.0,1.1720165749433191,0.0,0.0,0.0,0.0,0.006986362883062491
89_457,0.0,0.0,0.0,0.0,1.1757031768864172,0.0,0.0,0.0,0.0,-0.03334536393035105
90_89,0.0,0.0,0.0,0.0,1.1726048755438614,0.0,0.0,0.0,0.0,-0.0002192782000000212
91_133,0.0,0.0,0.0,0.0,1.162559842924213,0.0,0.0,0.0,0.0,-0.0012990750829353452
92_91,0.0,0.0,0.0,0.0,1.1603258782042913,0.0,0.0,0.0,0.0,-0.002252950300000032
94_93,0.0,0.0,0.0,0.0,1.146067249445956,0.0,0.0,0.0,0.0,-0.0001634897000000059
95_170,0.0,0.0,0.0,0.0,1.1617197049102002,0.0,0.0,0.0,0.0,0.002471545631826352
95_369,0.0,0.0,0.0,0.0,1.167512205005052,0.0,0.0,0.0,0.0,-0.01783712933124031
96_95,0.0,0.0,0.0,0.0,1.161660718764124,0.0,0.0,0.0,0.0,-0.0010549559000000985
98_97,0.0,0.0,0.0,0.0,1.1692023642750056,0.0,0.0,0.0,0.0,-0.0014221332999999204
99_465,0.0,0.0,0.0,0.0,1.1761509034520534,0.0,0.0,0.0,0.0,-0.0022815707005671786
100_99,0.0,0.0,0.0,0.0,1.1743927572686368,0.0,0.0,0.0,0.0,-0.0004661755999999722
101_99,0.0,0.0,0.0,0.0,1.1745966060131365,0.0,0.0,0.0,0.0,-2.7638999999938567e-05
102_308,0.0,0.0,0.0,0.0,1.1617247301174947,0.0,0.0,0.0,0.0,-0.03563002682767356
103_102,0.0,0.0,0.0,0.0,1.1545501809990137,0.0,0.0,0.0,0.0,-0.00143956299999999
104_31,0.0,0.0,0.0,0.0,1.1942108345764302,0.0,0.0,0.0,0.0,-0.007182825838301128
104_191,0.0,0.0,0.0,0.0,1.17821147381609,0.0,0.0,0.0,0.0,-0.030782809853152827
105_104,0.0,0.0,0.0,0.0,1.1773176953419213,0.0,0.0,0.0,0.0,-0.0028690217000000725
106_191,0.0,0.0,0.0,0.0,1.1778777513026082,0.0,0.0,0.0,0.0,0.018097877020890215
107_106,0.0,0.0,0.0,0.0,1.1772478519811342,0.0,0.0,0.0,0.0,-0.000488728100000019
108_472,0.0,0.0,0.0,0.0,1.166980620863507,0.0,0.0,0.0,0.0,-0.01856728107375288
108_495,0.0,0.0,0.0,0.0,1.1555079633063383,0.0,0.0,0.0,0.0,0.016900184232140562
109_108,0.0,0.0,0.0,0.0,1.1600659914472224,0.0,0.0,0.0,0.0,-0.0013486577999999214
110_316,0.0,0.0,0.0,0.0,1.185935087868559,0.0,0.0,0.0,0.0,-0.038424631849324785
111_110,0.0,0.0,0.0,0.0,1.1950866264853668,0.0,0.0,0.0,0.0,-0.002222178499999951
112_33,0.0,0.0,0.0,0.0,1.155019365028218,0.0,0.0,0.0,0.0,0.025712586597897696
112_236,0.0,0.0,0.0,0.0,1.1713797767721763,0.0,0.0,0.0,0.0,0.0018523748757667
112_283,0.0,0.0,0.0,0.0,1.1657750561129585,0.0,0.0,0.0,0.0,0.010007396872089937
112_499,0.0,0.0,0.0,0.0,1.1527875762314388,0.0,0.0,0.0,0.0,0.026649661349925774
113_112,0.0,0.0,0.0,0.0,1.1622411565147666,0.0,0.0,0.0,0.0,-0.0013554737
114_191,0.0,0.0,0.0,0.0,1.178212626953477,0.0,0.0,0.0,0.0,-0.009645071388644986
114_312,0.0,0.0,0.0,0.0,1.1781457869096599,0.0,0.0,0.0,0.0,0.0062889213787031386
115_114,0.0,0.0,0.0,0.0,1.177876546201255,0.0,0.0,0.0,0.0,-0.00016318500000001167
116_114,0.0,0.0,0.0,0.0,1.1779035599898857,0.0,0.0,0.0,0.0,-0.00010154950000002089
117_426,0.0,0.0,0.0,0.0,1.1593452601563672,0.0,0.0,0.0,0.0,-0.01594182399548501
118_117,0.0,0.0,0.0,0.0,1.1518464166559168,0.0,0.0,0.0,0.0,-0.00032508089999995954
119_129,0.0,0.0,0.0,0.0,1.1174313757841852,0.0,0.0,0.0,0.0,0.008798095262896101
120_119,0.0,0.0,0.0,0.0,1.1196512790739281,0.0,0.0,0.0,0.0,-0.0009212471000000257
121_276,0.0,0.0,0.0,0.0,1.1691954628756642,0.0,0.0,0.0,0.0,-0.003683786604596835
121_287,0.0,0.0,0.0,0.0,1.1659076384291354,0.0,0.0,0.0,0.0,-0.02518451704023663
122_121,0.0,0.0,0.0,0.0,1.1642127298484004,0.0,0.0,0.0,0.0,-0.001973249099999938
124_123,0.0,0.0,0.0,0.0,1.192978878454656,0.0,0.0,0.0,0.0,-0.01295919355952333
124_260,0.0,0.0,0.0,0.0,1.1889584065104375,0.0,0.0,0.0,0.0,0.006446241356087443
124_369,0.0,0.0,0.0,0.0,1.1814244623029706,0.0,0.0,0.0,0.0,0.038288368512168096
125_123,0.0,0.0,0.0,0.0,1.1951201669895675,0.0,0.0,0.0,0.0,0.0
126_123,0.0,0.0,0.0,0.0,1.1951201669895675,0.0,0.0,0.0,0.0,0.0
127_123,0.0,0.0,0.0,0.0,1.2000335230563561,0.0,0.0,0.0,0.0,0.07755624923976731
128_123,0.0,0.0,0.0,0.0,1.202264526509578,0.0,0.0,0.0,0.0,0.025601529751413696
130_129,0.0,0.0,0.0,0.0,1.1132332811771233,0.0,0.0,0.0,0.0,-0.0031332009999999215
131_333,0.0,0.0,0.0,0.0,1.1718038872219676,0.0,0.0,0.0,0.0,-0.0017180702195505539
132_131,0.0,0.0,0.0,0.0,1.1712044200698126,0.0,0.0,0.0,0.0,-0.0008657543999998835
133_226,0.0,0.0,0.0,0.0,1.1630720557738574,0.0,0.0,0.0,0.0,0.003223731367482708
133_369,0.0,0.0,0.0,0.0,1.1683486637265263,0.0,0.0,0.0,0.0,-0.017111249540826406
134_133,0.0,0.0,0.0,0.0,1.1632203420577152,0.0,0.0,0.0,0.0,-0.00125634399999999
135_287,0.0,0.0,0.0,0.0,1.1674873613182835,0.0,0.0,0.0,0.0,0.022443703050169912
135_457,0.0,0.0,0.0,0.0,1.1732904012789658,0.0,0.0,0.0,0.0,-0.03690923426508555
136_135,0.0,0.0,0.0,0.0,1.1676969693538997,0.0,0.0,0.0,0.0,-0.0009402173999999526
137_214,0.0,0.0,0.0,0.0,1.1509598944278012,0.0,0.0,0.0,0.0,0.014876761719652973
137_426,0.0,0.0,0.0,0.0,1.1607648375482402,0.0,0.0,0.0,0.0,-0.018189625539029197
138_137,0.0,0.0,0.0,0.0,1.1536403116154523,0.0,0.0,0.0,0.0,-0.002864830399999856
139_376,0.0,0.0,0.0,0.0,1.1567117802334868,0.0,0.0,0.0,0.0,0.022268009657947715
140_139,0.0,0.0,0.0,0.0,1.1647925347440904,0.0,0.0,0.0,0.0,-7.853200000066053e-06
142_141,0.0,0.0,0.0,0.0,1.1253772827929707,0.0,0.0,0.0,0.0,-0.0052174404000000126
143_338,0.0,0.0,0.0,0.0,1.1543928137435329,0.0,0.0,0.0,0.0,0.02323686226870741
143_401,0.0,0.0,0.0,0.0,1.152170836921145,0.0,0.0,0.0,0.0,0.0815905881196758
143_452,0.0,0.0,0.0,0.0,1.1535849381409529,0.0,0.0,0.0,0.0,0.0932099297405971
144_143,0.0,0.0,0.0,0.0,1.1640863678561584,0.0,0.0,0.0,0.0,0.22995644211878002
145_143,0.0,0.0,0.0,0.0,1.1855553827431282,0.0,0.0,0.0,0.0,0.04935050093711616
146_162,0.0,0.0,0.0,0.0,1.1862124273650037,0.0,0.0,0.0,0.0,-0.0007269475608608724
146_195,0.0,0.0,0.0,0.0,1.1867572447623254,0.0,0.0,0.0,0.0,-0.00016218316399691088
147_146,0.0,0.0,0.0,0.0,1.17187594278112,0.0,0.0,0.0,0.0,-0.012382287843484547
148_147,0.0,0.0,0.0,0.0,1.1569859600580468,0.0,0.0,0.0,0.0,-0.0021686886999999107
149_81,0.0,0.0,0.0,0.0,1.1864506478346526,0.0,0.0,0.0,0.0,-0.017096613029961443
150_149,0.0,0.0,0.0,0.0,1.183146109454574,0.0,0.0,0.0,0.0,-5.2675000000036165e-05
151_23,0.0,0.0,0.0,0.0,1.1874716724711198,0.0,0.0,0.0,0.0,-0.0019239968801246633
152_151,0.0,0.0,0.0,0.0,1.1890274641469127,0.0,0.0,0.0,0.0,-0.044219872808141956
153_152,0.0,0.0,0.0,0.0,1.1899151980029892,0.0,0.0,0.0,0.0,-0.002767424400000109
154_429,0.0,0.0,0.0,0.0,1.1632116933946175,0.0,0.0,0.0,0.0,-0.027858573496438697
154_488,0.0,0.0,0.0,0.0,1.135331392407626,0.0,0.0,0.0,0.0,0.052598968175961
155_154,0.0,0.0,0.0,0.0,1.1526547489422465,0.0,0.0,0.0,0.0,-0.0019135613999998725
157_156,0.0,0.0,0.0,0.0,1.1127740190383215,0.0,0.0,0.0,0.0,-0.0036061790999999664
158_233,0.0,0.0,0.0,0.0,1.1658989915247797,0.0,0.0,0.0,0.0,-0.02621849100612941
158_291,0.0,0.0,0.0,0.0,1.1553521384616432,0.0,0.0,0.0,0.0,0.012070867516878967
159_158,0.0,0.0,0.0,0.0,1.1581763901355162,0.0,0.0,0.0,0.0,-0.0008483796000000702
160_212,0.0,0.0,0.0,0.0,1.174585077905299,0.0,0.0,0.0,0.0,-0.003306768352106203
160_399,0.0,0.0,0.0,0.0,1.1778787496486172,0.0,0.0,0.0,0.0,-0.00438553089519243
161_160,0.0,0.0,0.0,0.0,1.1742625863159815,0.0,0.0,0.0,0.0,-0.0008874208000000344
162_195,0.0,0.0,0.0,0.0,1.1868514019280385,0.0,0.0,0.0,0.0,0.0005651430652616846
162_220,0.0,0.0,0.0,0.0,1.1809808945939917,0.0,0.0,0.0,0.0,-0.07424090364076517
162_232,0.0,0.0,0.0,0.0,1.188240442190817,0.0,0.0,0.0,0.0,0.016917439873879888
163_162,0.0,0.0,0.0,0.0,1.1823745203269451,0.0,0.0,0.0,0.0,-0.01434635328468018
164_163,0.0,0.0,0.0,0.0,1.1769329826719557,0.0,0.0,0.0,0.0,-0.0037431354999998777
165_123,0.0,0.0,0.0,0.0,1.1952248226654292,0.0,0.0,0.0,0.0,0.006569586743470344
165_386,0.0,0.0,0.0,0.0,1.1919600460643398,0.0,0.0,0.0,0.0,0.02403381010861411
166_165,0.0,0.0,0.0,0.0,1.1900162194802715,0.0,0.0,0.0,0.0,-0.02889706298423778
166_228,0.0,0.0,0.0,0.0,1.1599134190049825,0.0,0.0,0.0,0.0,0.0916897155338007
166_289,0.0,0.0,0.0,0.0,1.1792151085329854,0.0,0.0,0.0,0.0,0.027911349415982355
167_165,0.0,0.0,0.0,0.0,1.2019414121657976,0.0,0.0,0.0,0.0,0.041584202952615966
168_165,0.0,0.0,0.0,0.0,1.2007023785359408,0.0,0.0,0.0,0.0,0.06860176203424875
169_165,0.0,0.0,0.0,0.0,1.1985907110922542,0.0,0.0,0.0,0.0,0.09885702537712825
170_226,0.0,0.0,0.0,0.0,1.1618287774707008,0.0,0.0,0.0,0.0,1.413045813897879e-05
171_170,0.0,0.0,0.0,0.0,1.1611082195268394,0.0,0.0,0.0,0.0,-0.0004502922000000685
172_244,0.0,0.0,0.0,0.0,1.1504850502620627,0.0,0.0,0.0,0.0,0.003917373601097605
173_172,0.0,0.0,0.0,0.0,1.1459161476337307,0.0,0.0,0.0,0.0,-9.273759999995485e-05
174_172,0.0,0.0,0.0,0.0,1.1458615914787627,0.0,0.0,0.0,0.0,-0.0002104200000000374
175_220,0.0,0.0,0.0,0.0,1.1787379759914811,0.0,0.0,0.0,0.0,0.0062747427025452475
176_175,0.0,0.0,0.0,0.0,1.166242868462492,0.0,0.0,0.0,0.0,0.014947611424753298
177_176,0.0,0.0,0.0,0.0,1.1554563660839328,0.0,0.0,0.0,0.0,-0.00030734839999992656
178_176,0.0,0.0,0.0,0.0,1.155486690209339,0.0,0.0,0.0,0.0,-0.00020247480000002037
179_291,0.0,0.0,0.0,0.0,1.1492120892782418,0.0,0.0,0.0,0.0,-0.00966307903113176
179_374,0.0,0.0,0.0,0.0,1.146868493046466,0.0,0.0,0.0,0.0,-0.0018587978502838222
180_179,0.0,0.0,0.0,0.0,1.1460020520377383,0.0,0.0,0.0,0.0,-0.0004407389999999985
181_97,0.0,0.0,0.0,0.0,1.1777693268808724,0.0,0.0,0.0,0.0,0.0035935994779575787
181_487,0.0,0.0,0.0,0.0,1.1822509963084806,0.0,0.0,0.0,0.0,-0.02651501590437089
182_181,0.0,0.0,0.0,0.0,1.1844457300181352,0.0,0.0,0.0,0.0,-0.002929952199999932
183_247,0.0,0.0,0.0,0.0,1.1872110552745925,0.0,0.0,0.0,0.0,0.0037450229825985804
183_274,0.0,0.0,0.0,0.0,1.189133202815819,0.0,0.0,0.0,0.0,-0.017385641348126726
184_183,0.0,0.0,0.0,0.0,1.1862229697534565,0.0,0.0,0.0,0.0,-0.0008641833999999661
185_467,0.0,0.0,0.0,0.0,1.1640472267451905,0.0,0.0,0.0,0.0,-0.02491471256157545
186_185,0.0,0.0,0.0,0.0,1.1594449729244785,0.0,0.0,0.0,0.0,-0.0013224852000000345
187_454,0.0,0.0,0.0,0.0,1.1686096746854944,0.0,0.0,0.0,0.0,0.029627493589515816
188_187,0.0,0.0,0.0,0.0,1.171209964717474,0.0,0.0,0.0,0.0,-0.00032775749999997277
190_189,0.0,0.0,0.0,0.0,1.1992246256363674,0.0,0.0,0.0,0.0,-0.00039763200000006866
191_35,0.0,0.0,0.0,0.0,1.1758425258952085,0.0,0.0,0.0,0.0,0.00225907827721425
191_205,0.0,0.0,0.0,0.0,1.181429200144665,0.0,0.0,0.0,0.0,0.016906243630798547
191_293,0.0,0.0,0.0,0.0,1.1777792470685216,0.0,0.0,0.0,0.0,-0.014591611043699732
192_191,0.0,0.0,0.0,0.0,1.178279078600935,0.0,0.0,0.0,0.0,-0.0005888423999999335
193_19,0.0,0.0,0.0,0.0,1.169393184469444,0.0,0.0,0.0,0.0,0.0009320579864381525
193_112,0.0,0.0,0.0,0.0,1.164460159405801,0.0,0.0,0.0,0.0,-0.008910565650307099
194_193,0.0,0.0,0.0,0.0,1.1655772632429158,0.0,0.0,0.0,0.0,-0.0010375498000000675
196_195,0.0,0.0,0.0,0.0,1.1777682752039635,0.0,0.0,0.0,0.0,-0.04131162821328322
197_195,0.0,0.0,0.0,0.0,1.1951991356592946,0.0,0.0,0.0,0.0,0.0908225105146827
198_195,0.0,0.0,0.0,0.0,1.1977964184875978,0.0,0.0,0.0,0.0,0.045093598932842
199_196,0.0,0.0,0.0,0.0,1.1682858798030247,0.0,0.0,0.0,0.0,-0.002701569599999988
200_163,0.0,0.0,0.0,0.0,1.174301288123226,0.0,0.0,0.0,0.0,-0.013836923312042738
201_200,0.0,0.0,0.0,0.0,1.1700159396081333,0.0,0.0,0.0,0.0,-0.0002659103999999783
202_172,0.0,0.0,0.0,0.0,1.141372784542419,0.0,0.0,0.0,0.0,0.008871699277264018
203_202,0.0,0.0,0.0,0.0,1.1367935085305743,0.0,0.0,0.0,0.0,-0.00016163420000000995
204_202,0.0,0.0,0.0,0.0,1.1361396937027854,0.0,0.0,0.0,0.0,-0.0017087508999999736
205_312,0.0,0.0,0.0,0.0,1.1814600107444637,0.0,0.0,0.0,0.0,-0.0009275390370291601
206_205,0.0,0.0,0.0,0.0,1.1845102608800488,0.0,0.0,0.0,0.0,-8.671080000003928e-05
207_205,0.0,0.0,0.0,0.0,1.1841803952824237,0.0,0.0,0.0,0.0,-0.0007957794000000498
209_208,0.0,0.0,0.0,0.0,1.1663638830975058,0.0,0.0,0.0,0.0,-0.0028352123000000614
210_24,0.0,0.0,0.0,0.0,1.1502138675268319,0.0,0.0,0.0,0.0,-0.024516919735702736
211_210,0.0,0.0,0.0,0.0,1.1407231414602912,0.0,0.0,0.0,0.0,-0.0012347518000001205
212_399,0.0,0.0,0.0,0.0,1.1778214073523756,0.0,0.0,0.0,0.0,-0.0010694267087589472
213_212,0.0,0.0,0.0,0.0,1.1729424772294077,0.0,0.0,0.0,0.0,-0.003428858000000019
214_403,0.0,0.0,0.0,0.0,1.1544821702020212,0.0,0.0,0.0,0.0,-0.013212018651532136
215_214,0.0,0.0,0.0,0.0,1.145885964214853,0.0,0.0,0.0,0.0,-0.0030909989999999073
216_70,0.0,0.0,0.0,0.0,1.1307482024468276,0.0,0.0,0.0,0.0,-0.00572264473110762
217_216,0.0,0.0,0.0,0.0,1.1260346496155713,0.0,0.0,0.0,0.0,-0.0016359390000000701
218_399,0.0,0.0,0.0,0.0,1.1865862156926283,0.0,0.0,0.0,0.0,-0.014929766688994404
219_218,0.0,0.0,0.0,0.0,1.1922530138265695,0.0,0.0,0.0,0.0,-1.1545199999963882e-05
220_471,0.0,0.0,0.0,0.0,1.1818189975409437,0.0,0.0,0.0,0.0,0.06809407472449333
221_220,0.0,0.0,0.0,0.0,1.1685015288827314,0.0,0.0,0.0,0.0,-0.060427073719554684
221_447,0.0,0.0,0.0,0.0,1.1524831307562802,0.0,0.0,0.0,0.0,0.058417157175402266
221_478,0.0,0.0,0.0,0.0,1.1560688319397696,0.0,0.0,0.0,0.0,-0.009555878881954798
221_493,0.0,0.0,0.0,0.0,1.1551368666832729,0.0,0.0,0.0,0.0,0.02815050925988114
222_220,0.0,0.0,0.0,0.0,1.1802933835486258,0.0,0.0,0.0,0.0,0.0011582126503082578
223_220,0.0,0.0,0.0,0.0,1.180133156156133,0.0,0.0,0.0,0.0,0.005516660216625766
224_220,0.0,0.0,0.0,0.0,1.1763229783880504,0.0,0.0,0.0,0.0,0.061487635188980795
225_220,0.0,0.0,0.0,0.0,1.1783510475980492,0.0,0.0,0.0,0.0,0.03199178729947969
227_226,0.0,0.0,0.0,0.0,1.1622766086102636,0.0,0.0,0.0,0.0,-0.00017173590000007496
228_468,0.0,0.0,0.0,0.0,1.1452783999008134,0.0,0.0,0.0,0.0,0.00993069105889666
228_474,0.0,0.0,0.0,0.0,1.1245084438066046,0.0,0.0,0.0,0.0,0.07902792758508842
229_228,0.0,0.0,0.0,0.0,1.1412369023739086,0.0,0.0,0.0,0.0,-0.001856212100000071
231_230,0.0,0.0,0.0,0.0,1.1775324027255056,0.0,0.0,0.0,0.0,0.005424651862487692
232_371,0.0,0.0,0.0,0.0,1.1888374749261716,0.0,0.0,0.0,0.0,-0.002897432341166246
232_453,0.0,0.0,0.0,0.0,1.1922300591457307,0.0,0.0,0.0,0.0,0.0024985082195409006
233_53,0.0,0.0,0.0,0.0,1.1723334491439819,0.0,0.0,0.0,0.0,0.02134631955183593
233_232,0.0,0.0,0.0,0.0,1.1805592067376294,0.0,0.0,0.0,0.0,-0.06080596304946893
233_486,0.0,0.0,0.0,0.0,1.1705644930780934,0.0,0.0,0.0,0.0,0.019083384804029567
234_233,0.0,0.0,0.0,0.0,1.173007235619716,0.0,0.0,0.0,0.0,-0.0019595290999999512
235_271,0.0,0.0,0.0,0.0,1.1926142956208352,0.0,0.0,0.0,0.0,0.003484805231082425
235_407,0.0,0.0,0.0,0.0,1.1954321320156807,0.0,0.0,0.0,0.0,-0.026902613870235566
236_106,0.0,0.0,0.0,0.0,1.1785618264017232,0.0,0.0,0.0,0.0,0.017318470453223725
236_235,0.0,0.0,0.0,0.0,1.1862503591953342,0.0,0.0,0.0,0.0,-0.022238478642757225
237_236,0.0,0.0,0.0,0.0,1.1798593461217701,0.0,0.0,0.0,0.0,-8.571960000006105e-05
238_46,0.0,0.0,0.0,0.0,1.1558561065005764,0.0,0.0,0.0,0.0,0.024565692085251712
238_152,0.0,0.0,0.0,0.0,1.1793246916375268,0.0,0.0,0.0,0.0,-0.024781736001981972
239_238,0.0,0.0,0.0,0.0,1.1675139005878408,0.0,0.0,0.0,0.0,-0.0013625575000000528
240_74,0.0,0.0,0.0,0.0,1.189870934187309,0.0,0.0,0.0,0.0,0.006226055769812581
240_272,0.0,0.0,0.0,0.0,1.1853268575825309,0.0,0.0,0.0,0.0,-0.03718812887548328
241_240,0.0,0.0,0.0,0.0,1.1870277394010682,0.0,0.0,0.0,0.0,-0.0007578402000000985
242_287,0.0,0.0,0.0,0.0,1.1750532596598782,0.0,0.0,0.0,0.0,-0.06144428214069183
242_320,0.0,0.0,0.0,0.0,1.1742384710538767,0.0,0.0,0.0,0.0,0.00275887432609964
243_242,0.0,0.0,0.0,0.0,1.1848985757937749,0.0,0.0,0.0,0.0,-0.002636527799999951
244_426,0.0,0.0,0.0,0.0,1.1609858032022737,0.0,0.0,0.0,0.0,0.00028743849474915776
245_244,0.0,0.0,0.0,0.0,1.154867141041184,0.0,0.0,0.0,0.0,-0.000354103099999979
246_332,0.0,0.0,0.0,0.0,1.1912110328405907,0.0,0.0,0.0,0.0,0.002991135708068208
246_471,0.0,0.0,0.0,0.0,1.1906122953653304,0.0,0.0,0.0,0.0,-0.0009302418252310231
247_246,0.0,0.0,0.0,0.0,1.1908213783676282,0.0,0.0,0.0,0.0,0.013161768238169247
248_246,0.0,0.0,0.0,0.0,1.1939915031951578,0.0,0.0,0.0,0.0,0.0
249_246,0.0,0.0,0.0,0.0,1.1939915031951578,0.0,0.0,0.0,0.0,0.0
250_246,0.0,0.0,0.0,0.0,1.1939915031951578,0.0,0.0,0.0,0.0,0.0
251_360,0.0,0.0,0.0,0.0,1.1320982067671246,0.0,0.0,0.0,0.0,-0.035858018995209365
252_251,0.0,0.0,0.0,0.0,1.1207750082142374,0.0,0.0,0.0,0.0,-0.004375401900000007
253_119,0.0,0.0,0.0,0.0,1.1234142371262132,0.0,0.0,0.0,0.0,0.010289265651858056
253_347,0.0,0.0,0.0,0.0,1.1237196626568875,0.0,0.0,0.0,0.0,0.009846974150443126
253_417,0.0,0.0,0.0,0.0,1.1334383534785106,0.0,0.0,0.0,0.0,-0.01248169035471461
254_253,0.0,0.0,0.0,0.0,1.1268465208913958,0.0,0.0,0.0,0.0,0.0
255_253,0.0,0.0,0.0,0.0,1.1268465208913958,0.0,0.0,0.0,0.0,0.0
256_253,0.0,0.0,0.0,0.0,1.1268465208913958,0.0,0.0,0.0,0.0,0.0
257_253,0.0,0.0,0.0,0.0,1.1268465208913958,0.0,0.0,0.0,0.0,0.0
258_253,0.0,0.0,0.0,0.0,1.1282629908767063,0.0,0.0,0.0,0.0,0.00280450751336454
259_253,0.0,0.0,0.0,0.0,1.1267152116883494,0.0,0.0,0.0,0.0,-0.00027783280000001447
260_166,0.0,0.0,0.0,0.0,1.186177303880204,0.0,0.0,0.0,0.0,0.0029624965294136247
261_260,0.0,0.0,0.0,0.0,1.186700476452419,0.0,0.0,0.0,0.0,-0.0005908436000000452
262_232,0.0,0.0,0.0,0.0,1.1903983540002934,0.0,0.0,0.0,0.0,-0.005161207102446902
263_262,0.0,0.0,0.0,0.0,1.1851364970884601,0.0,0.0,0.0,0.0,-0.07770313182958039
263_276,0.0,0.0,0.0,0.0,1.1791121761221524,0.0,0.0,0.0,0.0,0.009203737885139077
263_326,0.0,0.0,0.0,0.0,1.176542995495947,0.0,0.0,0.0,0.0,0.030617913175243008
263_476,0.0,0.0,0.0,0.0,1.1788417400318842,0.0,0.0,0.0,0.0,0.0026652215495143205
263_491,0.0,0.0,0.0,0.0,1.17953440793382,0.0,0.0,0.0,0.0,0.03266804926503094
264_262,0.0,0.0,0.0,0.0,1.1904006842784587,0.0,0.0,0.0,0.0,0.0
265_262,0.0,0.0,0.0,0.0,1.1904006842784587,0.0,0.0,0.0,0.0,0.0
266_263,0.0,0.0,0.0,0.0,1.1840494493287337,0.0,0.0,0.0,0.0,-0.0020101260000000886
267_31,0.0,0.0,0.0,0.0,1.1915800777252108,0.0,0.0,0.0,0.0,-0.02172606948383095
268_267,0.0,0.0,0.0,0.0,1.1721093496350081,0.0,0.0,0.0,0.0,-0.004031287699999965
269_93,0.0,0.0,0.0,0.0,1.1478037433162827,0.0,0.0,0.0,0.0,-0.015408485272328066
270_269,0.0,0.0,0.0,0.0,1.1495651537007812,0.0,0.0,0.0,0.0,-0.00026004660000009767
272_85,0.0,0.0,0.0,0.0,1.1884882638216996,0.0,0.0,0.0,0.0,0.024693387042233644
272_271,0.0,0.0,0.0,0.0,1.1879020840768235,0.0,0.0,0.0,0.0,-0.03174228763289373
273_272,0.0,0.0,0.0,0.0,1.1843224168161794,0.0,0.0,0.0,0.0,-0.00036497020000007016
274_110,0.0,0.0,0.0,0.0,1.1938723156711344,0.0,0.0,0.0,0.0,-0.014838136366383821
275_274,0.0,0.0,0.0,0.0,1.1918969523992324,0.0,0.0,0.0,0.0,0.0
276_320,0.0,0.0,0.0,0.0,1.1671579385377866,0.0,0.0,0.0,0.0,0.042206262226785106
276_485,0.0,0.0,0.0,0.0,1.1675242713357368,0.0,0.0,0.0,0.0,0.00415091721415111
277_276,0.0,0.0,0.0,0.0,1.1733508902435368,0.0,0.0,0.0,0.0,-1.4425400000005523e-05
278_276,0.0,0.0,0.0,0.0,1.1732672704430676,0.0,0.0,0.0,0.0,-0.00021399839999990163
279_340,0.0,0.0,0.0,0.0,1.141946032812837,0.0,0.0,0.0,0.0,0.010335656101768634
279_468,0.0,0.0,0.0,0.0,1.1460886298782127,0.0,0.0,0.0,0.0,-0.010670859264393314
280_279,0.0,0.0,0.0,0.0,1.1434502743912316,0.0,0.0,0.0,0.0,-0.0004906881999998904
281_328,0.0,0.0,0.0,0.0,1.140993602863492,0.0,0.0,0.0,0.0,-0.05988949578861687
281_384,0.0,0.0,0.0,0.0,1.1386049899392179,0.0,0.0,0.0,0.0,-0.024532643577083874
282_281,0.0,0.0,0.0,0.0,1.138446599515423,0.0,0.0,0.0,0.0,-0.004074141800000009
283_236,0.0,0.0,0.0,0.0,1.1742698264430298,0.0,0.0,0.0,0.0,-0.008223262057983013
284_283,0.0,0.0,0.0,0.0,1.1681619877736844,0.0,0.0,0.0,0.0,-0.0012459024999999142
285_230,0.0,0.0,0.0,0.0,1.1747431941019606,0.0,0.0,0.0,0.0,-0.0316687639343362
285_487,0.0,0.0,0.0,0.0,1.1768564857977464,0.0,0.0,0.0,0.0,0.03476816174098871
286_285,0.0,0.0,0.0,0.0,1.1753047418882239,0.0,0.0,0.0,0.0,-0.00025542419999996
287_62,0.0,0.0,0.0,0.0,1.1614991728510804,0.0,0.0,0.0,0.0,-0.011968679566420977
287_415,0.0,0.0,0.0,0.0,1.16217825854809,0.0,0.0,0.0,0.0,0.017518594602649824
287_476,0.0,0.0,0.0,0.0,1.169926276743725,0.0,0.0,0.0,0.0,0.015095363763506781
288_287,0.0,0.0,0.0,0.0,1.1664091610641716,0.0,0.0,0.0,0.0,-0.0021400548000000295
290_289,0.0,0.0,0.0,0.0,1.1736728751474639,0.0,0.0,0.0,0.0,-0.0001351568999999422
292_291,0.0,0.0,0.0,0.0,1.1521787523987037,0.0,0.0,0.0,0.0,-0.00023362560000002148
293_149,0.0,0.0,0.0,0.0,1.179950051563797,0.0,0.0,0.0,0.0,-0.02294907564719547
294_293,0.0,0.0,0.0,0.0,1.1767924157896512,0.0,0.0,0.0,0.0,-0.0007981864999998567
295_447,0.0,0.0,0.0,0.0,1.1505961727682834,0.0,0.0,0.0,0.0,-0.0305008666420061
296_295,0.0,0.0,0.0,0.0,1.1538298518424308,0.0,0.0,0.0,0.0,-0.00025638589999996483
297_440,0.0,0.0,0.0,0.0,1.1740835008210782,0.0,0.0,0.0,0.0,-0.024436818497617648
298_297,0.0,0.0,0.0,0.0,1.1748740773589652,0.0,0.0,0.0,0.0,-0.026329132487945068
298_426,0.0,0.0,0.0,0.0,1.1695715608663488,0.0,0.0,0.0,0.0,0.02155461471388152
299_298,0.0,0.0,0.0,0.0,1.1723624780276871,0.0,0.0,0.0,0.0,-0.0005085217999999277
300_141,0.0,0.0,0.0,0.0,1.1308283274795856,0.0,0.0,0.0,0.0,-0.03898367991864455
300_478,0.0,0.0,0.0,0.0,1.1431542067347746,0.0,0.0,0.0,0.0,0.03364731094609013
301_300,0.0,0.0,0.0,0.0,1.1348069321616974,0.0,0.0,0.0,0.0,0.0023651158328868763
302_300,0.0,0.0,0.0,0.0,1.1348528774314175,0.0,0.0,0.0,0.0,0.00228470581567826
303_300,0.0,0.0,0.0,0.0,1.1335282120196872,0.0,0.0,0.0,0.0,-0.0033183128000000076
304_129,0.0,0.0,0.0,0.0,1.115684658280874,0.0,0.0,0.0,0.0,0.004841802624887951
305_304,0.0,0.0,0.0,0.0,1.1187529455776788,0.0,0.0,0.0,0.0,0.005280797227595171
306_304,0.0,0.0,0.0,0.0,1.1189269050346609,0.0,0.0,0.0,0.0,0.005950058462616031
307_304,0.0,0.0,0.0,0.0,1.1154132801315895,0.0,0.0,0.0,0.0,-0.002525375200000026
308_500,0.0,0.0,0.0,0.0,1.1724461443225314,0.0,0.0,0.0,0.0,-0.010881510161409669
309_308,0.0,0.0,0.0,0.0,1.1692380184839293,0.0,0.0,0.0,0.0,-0.0003448906999999823
310_281,0.0,0.0,0.0,0.0,1.1500275455994997,0.0,0.0,0.0,0.0,-0.01811706505156291
311_310,0.0,0.0,0.0,0.0,1.159507494265117,0.0,0.0,0.0,0.0,-0.0015000548000000313
312_267,0.0,0.0,0.0,0.0,1.1757399054036197,0.0,0.0,0.0,0.0,0.029179841962477738
313_312,0.0,0.0,0.0,0.0,1.1781655500219614,0.0,0.0,0.0,0.0,-0.0004733000000000588
314_295,0.0,0.0,0.0,0.0,1.1551551631212393,0.0,0.0,0.0,0.0,-0.016538913278784907
315_314,0.0,0.0,0.0,0.0,1.1566001911979247,0.0,0.0,0.0,0.0,-1.2925300000017936e-05
316_5,0.0,0.0,0.0,0.0,1.1709857435791169,0.0,0.0,0.0,0.0,-0.028201302329655488
317_316,0.0,0.0,0.0,0.0,1.1770986305553477,0.0,0.0,0.0,0.0,-0.00010747749999999035
318_176,0.0,0.0,0.0,0.0,1.1515712576578898,0.0,0.0,0.0,0.0,-0.017794096831203858
318_336,0.0,0.0,0.0,0.0,1.1446477023328407,0.0,0.0,0.0,0.0,0.023807973263265423
319_318,0.0,0.0,0.0,0.0,1.1460402778787386,0.0,0.0,0.0,0.0,0.032121693763521364
321_320,0.0,0.0,0.0,0.0,1.160088232815219,0.0,0.0,0.0,0.0,-0.005192611199999931
322_58,0.0,0.0,0.0,0.0,1.1444541944179067,0.0,0.0,0.0,0.0,-0.03188585434828684
322_208,0.0,0.0,0.0,0.0,1.153635495843015,0.0,0.0,0.0,0.0,0.03867419312703494
323_322,0.0,0.0,0.0,0.0,1.1404646085341736,0.0,0.0,0.0,0.0,-0.0013280236999999482
324_129,0.0,0.0,0.0,0.0,1.1188057500414774,0.0,0.0,0.0,0.0,0.00743354994741133
324_322,0.0,0.0,0.0,0.0,1.1317548560868798,0.0,0.0,0.0,0.0,-0.02071638752469324
325_324,0.0,0.0,0.0,0.0,1.1212291694154084,0.0,0.0,0.0,0.0,-0.003692276899999992
327_326,0.0,0.0,0.0,0.0,1.1672331850730733,0.0,0.0,0.0,0.0,-0.0036814463000000184
329_328,0.0,0.0,0.0,0.0,1.144550469282289,0.0,0.0,0.0,0.0,-0.0007509992000000043
331_330,0.0,0.0,0.0,0.0,1.1603484280925422,0.0,0.0,0.0,0.0,-0.002132414400000023
332_471,0.0,0.0,0.0,0.0,1.1878373638338076,0.0,0.0,0.0,0.0,-0.00391074581691897
333_330,0.0,0.0,0.0,0.0,1.166527062785069,0.0,0.0,0.0,0.0,0.014682144077017154
333_332,0.0,0.0,0.0,0.0,1.179817301276586,0.0,0.0,0.0,0.0,-0.0296533929634911
334_333,0.0,0.0,0.0,0.0,1.1719851287603495,0.0,0.0,0.0,0.0,-1.5119399999893665e-05
335_333,0.0,0.0,0.0,0.0,1.1719795744844814,0.0,0.0,0.0,0.0,-2.8102200000027186e-05
336_93,0.0,0.0,0.0,0.0,1.1437619528988703,0.0,0.0,0.0,0.0,0.025566945619095414
337_336,0.0,0.0,0.0,0.0,1.1418674362641832,0.0,0.0,0.0,0.0,-0.00021285549999999065
338_459,0.0,0.0,0.0,0.0,1.1426432391939167,0.0,0.0,0.0,0.0,0.008362823378847766
339_338,0.0,0.0,0.0,0.0,1.1445523506449897,0.0,0.0,0.0,0.0,-0.002613611599999977
341_340,0.0,0.0,0.0,0.0,1.139882287661049,0.0,0.0,0.0,0.0,-0.000891820600000043
342_10,0.0,0.0,0.0,0.0,1.1635902085001844,0.0,0.0,0.0,0.0,-0.013950787753331827
343_342,0.0,0.0,0.0,0.0,1.1583632634418441,0.0,0.0,0.0,0.0,-8.720359999999023e-05
344_342,0.0,0.0,0.0,0.0,1.1583629588195499,0.0,0.0,0.0,0.0,-9.047529999989193e-05
345_179,0.0,0.0,0.0,0.0,1.1441456998390311,0.0,0.0,0.0,0.0,-0.0037092548620182874
345_415,0.0,0.0,0.0,0.0,1.149413420441285,0.0,0.0,0.0,0.0,-0.025065717963709738
346_345,0.0,0.0,0.0,0.0,1.1414107450608355,0.0,0.0,0.0,0.0,-0.0014452154999999437
347_417,0.0,0.0,0.0,0.0,1.1301841321953339,0.0,0.0,0.0,0.0,-0.02235163225484087
348_347,0.0,0.0,0.0,0.0,1.1194614598096158,0.0,0.0,0.0,0.0,-0.0025614143999999964
349_403,0.0,0.0,0.0,0.0,1.168070221208023,0.0,0.0,0.0,0.0,0.01306320072129343
350_349,0.0,0.0,0.0,0.0,1.1788181156862705,0.0,0.0,0.0,0.0,0.010584480783969818
351_349,0.0,0.0,0.0,0.0,1.1765047354822669,0.0,0.0,0.0,0.0,0.004820918874242551
352_349,0.0,0.0,0.0,0.0,1.1787225108579635,0.0,0.0,0.0,0.0,0.010215397001172759
353_349,0.0,0.0,0.0,0.0,1.1908982062030302,0.0,0.0,0.0,0.0,0.052788385711751463
355_354,0.0,0.0,0.0,0.0,1.1748041536669118,0.0,0.0,0.0,0.0,-0.0007142703999999796
356_208,0.0,0.0,0.0,0.0,1.164384194057708,0.0,0.0,0.0,0.0,-0.012612693130093923
356_382,0.0,0.0,0.0,0.0,1.163346546156527,0.0,0.0,0.0,0.0,-0.0007827019313250229
357_356,0.0,0.0,0.0,0.0,1.160514500508999,0.0,0.0,0.0,0.0,-0.0018267253000000118
358_48,0.0,0.0,0.0,0.0,1.1598517381131612,0.0,0.0,0.0,0.0,-0.0012476907677013915
358_97,0.0,0.0,0.0,0.0,1.1661653295339471,0.0,0.0,0.0,0.0,0.005830857261247043
358_310,0.0,0.0,0.0,0.0,1.1613415582740922,0.0,0.0,0.0,0.0,-0.009437456942334265
359_358,0.0,0.0,0.0,0.0,1.162327023661474,0.0,0.0,0.0,0.0,-0.000485462400000058
360_417,0.0,0.0,0.0,0.0,1.141156727206401,0.0,0.0,0.0,0.0,0.024077914094317306
361_360,0.0,0.0,0.0,0.0,1.1426156998455737,0.0,0.0,0.0,0.0,0.0
362_360,0.0,0.0,0.0,0.0,1.1426156998455737,0.0,0.0,0.0,0.0,0.0
363_360,0.0,0.0,0.0,0.0,1.1426156998455743,0.0,0.0,0.0,0.0,0.0
364_360,0.0,0.0,0.0,0.0,1.1421695096592863,0.0,0.0,0.0,0.0,-0.0010413996000000038
365_374,0.0,0.0,0.0,0.0,1.1501857512021971,0.0,0.0,0.0,0.0,0.007985723259791662
365_454,0.0,0.0,0.0,0.0,1.1595880263006666,0.0,0.0,0.0,0.0,-0.0186449375923505
366_365,0.0,0.0,0.0,0.0,1.1520179621253699,0.0,0.0,0.0,0.0,-0.0021301089000000913
367_15,0.0,0.0,0.0,0.0,1.1733678153685556,0.0,0.0,0.0,0.0,-0.03116829913935571
367_461,0.0,0.0,0.0,0.0,1.1556852451647965,0.0,0.0,0.0,0.0,0.05221481889971857
367_468,0.0,0.0,0.0,0.0,1.1566661345632634,0.0,0.0,0.0,0.0,0.05169697282793166
368_367,0.0,0.0,0.0,0.0,1.1669838601351863,0.0,0.0,0.0,0.0,-0.00035223450000003767
370_369,0.0,0.0,0.0,0.0,1.1726802235197735,0.0,0.0,0.0,0.0,-0.0010364299000000193
371_195,0.0,0.0,0.0,0.0,1.1872549521406812,0.0,0.0,0.0,0.0,-0.013443936773916206
372_112,0.0,0.0,0.0,0.0,1.1668197570105356,0.0,0.0,0.0,0.0,0.029282494248277613
372_371,0.0,0.0,0.0,0.0,1.177525580461981,0.0,0.0,0.0,0.0,-0.06540290838988995
373_372,0.0,0.0,0.0,0.0,1.1710552417717712,0.0,0.0,0.0,0.0,-0.0008727214999999136
375_374,0.0,0.0,0.0,0.0,1.1471924383578198,0.0,0.0,0.0,0.0,-0.0007114671999999677
376_429,0.0,0.0,0.0,0.0,1.160789850829022,0.0,0.0,0.0,0.0,-0.03452577996817704
376_460,0.0,0.0,0.0,0.0,1.146233431659021,0.0,0.0,0.0,0.0,0.006771491649869606
376_469,0.0,0.0,0.0,0.0,1.1345149571600577,0.0,0.0,0.0,0.0,0.05188407523452199
376_495,0.0,0.0,0.0,0.0,1.1498024549867123,0.0,0.0,0.0,0.0,-0.0055167913832544786
377_376,0.0,0.0,0.0,0.0,1.1478379636703386,0.0,0.0,0.0,0.0,-0.002911602500000032
378_318,0.0,0.0,0.0,0.0,1.1468138004846695,0.0,0.0,0.0,0.0,-0.006125512752395682
378_336,0.0,0.0,0.0,0.0,1.1437516685020248,0.0,0.0,0.0,0.0,0.01767821542983017
379_378,0.0,0.0,0.0,0.0,1.145612342817798,0.0,0.0,0.0,0.0,-0.00047648299999992767
380_202,0.0,0.0,0.0,0.0,1.1397387105231487,0.0,0.0,0.0,0.0,0.03696591119876017
381_380,0.0,0.0,0.0,0.0,1.1436670222889063,0.0,0.0,0.0,0.0,-0.0003493839999999824
383_382,0.0,0.0,0.0,0.0,1.1649139783782565,0.0,0.0,0.0,0.0,-0.0010268876000000386
385_384,0.0,0.0,0.0,0.0,1.1369956848595628,0.0,0.0,0.0,0.0,-0.0010973039999999956
386_14,0.0,0.0,0.0,0.0,1.1915555561206264,0.0,0.0,0.0,0.0,-0.02398254799996927
387_386,0.0,0.0,0.0,0.0,1.1836647255742898,0.0,0.0,0.0,0.0,-0.03262022698323527
387_467,0.0,0.0,0.0,0.0,1.173606594316347,0.0,0.0,0.0,0.0,0.025055341305644838
387_470,0.0,0.0,0.0,0.0,1.174673912957551,0.0,0.0,0.0,0.0,0.017718051082860783
388_386,0.0,0.0,0.0,0.0,1.189047413398541,0.0,0.0,0.0,0.0,0.0
389_386,0.0,0.0,0.0,0.0,1.189047413398541,0.0,0.0,0.0,0.0,0.0
390_386,0.0,0.0,0.0,0.0,1.189047413398541,0.0,0.0,0.0,0.0,0.0
391_386,0.0,0.0,0.0,0.0,1.189047413398541,0.0,0.0,0.0,0.0,0.0
392_386,0.0,0.0,0.0,0.0,1.189047413398541,0.0,0.0,0.0,0.0,0.0
393_386,0.0,0.0,0.0,0.0,1.189047413398541,0.0,0.0,0.0,0.0,0.0
394_386,0.0,0.0,0.0,0.0,1.189047413398541,0.0,0.0,0.0,0.0,0.0
395_386,0.0,0.0,0.0,0.0,1.189047413398541,0.0,0.0,0.0,0.0,0.0
396_386,0.0,0.0,0.0,0.0,1.189047413398541,0.0,0.0,0.0,0.0,0.0
397_387,0.0,0.0,0.0,0.0,1.1786428936657833,0.0,0.0,0.0,0.0,-0.0012636090000000206
398_387,0.0,0.0,0.0,0.0,1.1789461597886797,0.0,0.0,0.0,0.0,-0.0004899438000000645
399_312,0.0,0.0,0.0,0.0,1.1792813327474034,0.0,0.0,0.0,0.0,0.03332482737396148
400_399,0.0,0.0,0.0,0.0,1.1807240262239458,0.0,0.0,0.0,0.0,-0.000870758199999995
401_5,0.0,0.0,0.0,0.0,1.15455254886967,0.0,0.0,0.0,0.0,0.057883461544778574
402_401,0.0,0.0,0.0,0.0,1.1452216059003186,0.0,0.0,0.0,0.0,-0.0031591603999999605
404_403,0.0,0.0,0.0,0.0,1.1616140210146122,0.0,0.0,0.0,0.0,-0.0006527650000000335
405_300,0.0,0.0,0.0,0.0,1.1325571599666422,0.0,0.0,0.0,0.0,-0.010886837046992807
406_405,0.0,0.0,0.0,0.0,1.1301184916442535,0.0,0.0,0.0,0.0,-0.000178265499999955
407_80,0.0,0.0,0.0,0.0,1.1980796833632574,0.0,0.0,0.0,0.0,-0.017868421863408476
408_212,0.0,0.0,0.0,0.0,1.181261617245881,0.0,0.0,0.0,0.0,0.02904289322529008
408_399,0.0,0.0,0.0,0.0,1.1846034828553464,0.0,0.0,0.0,0.0,0.02804884666702984
408_407,0.0,0.0,0.0,0.0,1.1929337646038285,0.0,0.0,0.0,0.0,-0.03926403866359638
409_407,0.0,0.0,0.0,0.0,1.1984239563045465,0.0,0.0,0.0,0.0,0.0
410_407,0.0,0.0,0.0,0.0,1.2004439938344686,0.0,0.0,0.0,0.0,0.030411141619546157
411_407,0.0,0.0,0.0,0.0,1.2002640225752346,0.0,0.0,0.0,0.0,0.01720377439762187
412_407,0.0,0.0,0.0,0.0,1.200150102136144,0.0,0.0,0.0,0.0,0.01964585949911149
413_407,0.0,0.0,0.0,0.0,1.1996646436213914,0.0,0.0,0.0,0.0,0.02842477642350724
414_407,0.0,0.0,0.0,0.0,1.198423956304547,0.0,0.0,0.0,0.0,0.0
416_415,0.0,0.0,0.0,0.0,1.1572474544858373,0.0,0.0,0.0,0.0,-0.0002237543999999882
417_251,0.0,0.0,0.0,0.0,1.1314082862560744,0.0,0.0,0.0,0.0,0.011955950048345114
417_468,0.0,0.0,0.0,0.0,1.1428058108043337,0.0,0.0,0.0,0.0,-0.060067012086761365
417_469,0.0,0.0,0.0,0.0,1.1312845931489781,0.0,0.0,0.0,0.0,0.00438296103975541
417_474,0.0,0.0,0.0,0.0,1.1263132076874445,0.0,0.0,0.0,0.0,0.01011338734247569
418_417,0.0,0.0,0.0,0.0,1.1391933904023843,0.0,0.0,0.0,0.0,-0.002127614600000019
419_48,0.0,0.0,0.0,0.0,1.1564266438229898,0.0,0.0,0.0,0.0,0.010033583257769282
419_102,0.0,0.0,0.0,0.0,1.1554504849290301,0.0,0.0,0.0,0.0,-0.009703789167023205
420_419,0.0,0.0,0.0,0.0,1.1557092665553692,0.0,0.0,0.0,0.0,-0.00018842839999999754
421_1,0.0,0.0,0.0,0.0,1.1554644765437299,0.0,0.0,0.0,0.0,0.0033407999546717134
421_354,0.0,0.0,0.0,0.0,1.1657182073010657,0.0,0.0,0.0,0.0,-0.024940522006600314
422_421,0.0,0.0,0.0,0.0,1.1561809023788907,0.0,0.0,0.0,0.0,-0.001445199999999896
423_87,0.0,0.0,0.0,0.0,1.1227148317276938,0.0,0.0,0.0,0.0,0.0064043693648218715
423_496,0.0,0.0,0.0,0.0,1.1285954762378114,0.0,0.0,0.0,0.0,-0.06802128532862378
424_423,0.0,0.0,0.0,0.0,1.1150361514835336,0.0,0.0,0.0,0.0,-0.005784235299999981
425_297,0.0,0.0,0.0,0.0,1.1770047065777174,0.0,0.0,0.0,0.0,-0.00527617701118155
426_425,0.0,0.0,0.0,0.0,1.170835148129602,0.0,0.0,0.0,0.0,-0.04257995906543053
427_426,0.0,0.0,0.0,0.0,1.1667503861920239,0.0,0.0,0.0,0.0,-0.0004107700999999174
428_151,0.0,0.0,0.0,0.0,1.1908812856588014,0.0,0.0,0.0,0.0,0.008710948580128995
428_246,0.0,0.0,0.0,0.0,1.1936554609877434,0.0,0.0,0.0,0.0,-1.6190533732433002e-05
429_139,0.0,0.0,0.0,0.0,1.1691389112814308,0.0,0.0,0.0,0.0,0.012259843119763232
429_428,0.0,0.0,0.0,0.0,1.1829387680553636,0.0,0.0,0.0,0.0,-0.03416940801089573
429_466,0.0,0.0,0.0,0.0,1.1715097834630488,0.0,0.0,0.0,0.0,0.005026894614452517
430_428,0.0,0.0,0.0,0.0,1.1935724154061373,0.0,0.0,0.0,0.0,0.0006310166505815362
431_428,0.0,0.0,0.0,0.0,1.1937933732263852,0.0,0.0,0.0,0.0,0.0011984813688685732
432_428,0.0,0.0,0.0,0.0,1.1934681836367624,0.0,0.0,0.0,0.0,0.0003799423198645615
433_428,0.0,0.0,0.0,0.0,1.1956757180214186,0.0,0.0,0.0,0.0,0.006075100919193323
434_428,0.0,0.0,0.0,0.0,1.1937050625387786,0.0,0.0,0.0,0.0,0.0009685702300581201
435_428,0.0,0.0,0.0,0.0,1.1933195135770667,0.0,0.0,0.0,0.0,0.0
436_428,0.0,0.0,0.0,0.0,1.1933195135770667,0.0,0.0,0.0,0.0,0.0
437_428,0.0,0.0,0.0,0.0,1.201083579354071,0.0,0.0,0.0,0.0,0.036261198945093574
438_428,0.0,0.0,0.0,0.0,1.2007668703245222,0.0,0.0,0.0,0.0,0.045558333395593224
439_428,0.0,0.0,0.0,0.0,1.2012919828892397,0.0,0.0,0.0,0.0,0.028534386727519283
440_57,0.0,0.0,0.0,0.0,1.1667107896513889,0.0,0.0,0.0,0.0,0.010851360176976386
440_386,0.0,0.0,0.0,0.0,1.1773048568284028,0.0,0.0,0.0,0.0,-0.07897817706917465
441_384,0.0,0.0,0.0,0.0,1.1401800369361956,0.0,0.0,0.0,0.0,0.02888039192143528
441_440,0.0,0.0,0.0,0.0,1.1547898374327399,0.0,0.0,0.0,0.0,-0.07425670550496173
442_440,0.0,0.0,0.0,0.0,1.170924105024107,0.0,0.0,0.0,0.0,0.0
443_440,0.0,0.0,0.0,0.0,1.170924105024107,0.0,0.0,0.0,0.0,0.0
444_440,0.0,0.0,0.0,0.0,1.170924105024107,0.0,0.0,0.0,0.0,0.0
445_185,0.0,0.0,0.0,0.0,1.1585613786241258,0.0,0.0,0.0,0.0,-0.025539430608474155
445_461,0.0,0.0,0.0,0.0,1.1521331519603653,0.0,0.0,0.0,0.0,-0.0002075053465852472
446_445,0.0,0.0,0.0,0.0,1.1561554801983502,0.0,0.0,0.0,0.0,-0.003013037199999964
448_447,0.0,0.0,0.0,0.0,1.1471384372298616,0.0,0.0,0.0,0.0,-0.0021227321999999194
449_330,0.0,0.0,0.0,0.0,1.158207766839592,0.0,0.0,0.0,0.0,-0.008976668305196911
450_449,0.0,0.0,0.0,0.0,1.1552062325121437,0.0,0.0,0.0,0.0,-3.57106000000354e-05
451_449,0.0,0.0,0.0,0.0,1.1551916070900108,0.0,0.0,0.0,0.0,-6.746779999999679e-05
452_76,0.0,0.0,0.0,0.0,1.150915003845343,0.0,0.0,0.0,0.0,0.02275534967426453
454_29,0.0,0.0,0.0,0.0,1.161513540497678,0.0,0.0,0.0,0.0,0.02562394468910353
454_453,0.0,0.0,0.0,0.0,1.177669653071835,0.0,0.0,0.0,0.0,-0.0779142442179481
455_453,0.0,0.0,0.0,0.0,1.201950996082378,0.0,0.0,0.0,0.0,0.01067625473116627
456_453,0.0,0.0,0.0,0.0,1.2017928471701789,0.0,0.0,0.0,0.0,0.02222915777800985
458_457,0.0,0.0,0.0,0.0,1.1765535677199657,0.0,0.0,0.0,0.0,0.07910928078909331
459_496,0.0,0.0,0.0,0.0,1.1416484306313983,0.0,0.0,0.0,0.0,-0.0048781221159735775
460_340,0.0,0.0,0.0,0.0,1.1418402608159355,0.0,0.0,0.0,0.0,0.0020177553381727684
462_465,0.0,0.0,0.0,0.0,1.1732915756090816,0.0,0.0,0.0,0.0,-0.018322484410003954
462_477,0.0,0.0,0.0,0.0,1.1621744083035188,0.0,0.0,0.0,0.0,0.028003373175003766
463_462,0.0,0.0,0.0,0.0,1.1691871690847253,0.0,0.0,0.0,0.0,0.0
465_464,0.0,0.0,0.0,0.0,1.1821102215034773,0.0,0.0,0.0,0.0,-0.022008289993881772
466_60,0.0,0.0,0.0,0.0,1.1700359971408314,0.0,0.0,0.0,0.0,-0.0024309358850759825
468_289,0.0,0.0,0.0,0.0,1.1587154933771922,0.0,0.0,0.0,0.0,-0.07413178251075007
470_467,0.0,0.0,0.0,0.0,1.1694771505089196,0.0,0.0,0.0,0.0,0.0073251565995626645
471_464,0.0,0.0,0.0,0.0,1.187082478359212,0.0,0.0,0.0,0.0,0.005880948513694227
472_99,0.0,0.0,0.0,0.0,1.1740682941763103,0.0,0.0,0.0,0.0,0.0016846381523322464
472_471,0.0,0.0,0.0,0.0,1.1800239807534358,0.0,0.0,0.0,0.0,-0.028414231180809445
473_133,0.0,0.0,0.0,0.0,1.1672314969385031,0.0,0.0,0.0,0.0,0.009001890774939972
475_147,0.0,0.0,0.0,0.0,1.1560478694057321,0.0,0.0,0.0,0.0,0.010937429667420626
475_269,0.0,0.0,0.0,0.0,1.15190508040379,0.0,0.0,0.0,0.0,-0.01223149474843787
476_486,0.0,0.0,0.0,0.0,1.1701435327584482,0.0,0.0,0.0,0.0,-0.005038297438600476
477_295,0.0,0.0,0.0,0.0,1.1548713402970772,0.0,0.0,0.0,0.0,0.009221140979241007
479_354,0.0,0.0,0.0,0.0,1.186210224012505,0.0,0.0,0.0,0.0,0.031131230537848706
480_479,0.0,0.0,0.0,0.0,1.2035772825052173,0.0,0.0,0.0,0.0,0.03510786677378574
481_479,0.0,0.0,0.0,0.0,1.2038366623261878,0.0,0.0,0.0,0.0,0.02466038487738301
482_479,0.0,0.0,0.0,0.0,1.2040065553723178,0.0,0.0,0.0,0.0,0.014108719135831822
483_479,0.0,0.0,0.0,0.0,1.203850412735815,0.0,0.0,0.0,0.0,0.023979321897489924
484_479,0.0,0.0,0.0,0.0,1.203993016326483,0.0,0.0,0.0,0.0,0.01522029609040848
485_454,0.0,0.0,0.0,0.0,1.164065688448992,0.0,0.0,0.0,0.0,-0.015143498016880749
485_499,0.0,0.0,0.0,0.0,1.1522746714531928,0.0,0.0,0.0,0.0,0.02314675659132402
488_156,0.0,0.0,0.0,0.0,1.1170556029468381,0.0,0.0,0.0,0.0,0.010828021392028184
488_210,0.0,0.0,0.0,0.0,1.1300723407513589,0.0,0.0,0.0,0.0,-0.031085023776617992
489_149,0.0,0.0,0.0,0.0,1.1818334791377234,0.0,0.0,0.0,0.0,-0.002022625597049668
490_117,0.0,0.0,0.0,0.0,1.1456401890547048,0.0,0.0,0.0,0.0,-0.012677241374495777
491_326,0.0,0.0,0.0,0.0,1.171992485157035,0.0,0.0,0.0,0.0,-0.0019582665088686466
492_336,0.0,0.0,0.0,0.0,1.1331954767256378,0.0,0.0,0.0,0.0,-0.01803959874096482
492_405,0.0,0.0,0.0,0.0,1.1274271722667653,0.0,0.0,0.0,0.0,-0.011767328952941282
493_380,0.0,0.0,0.0,0.0,1.1471334342986657,0.0,0.0,0.0,0.0,0.02678988919137403
494_493,0.0,0.0,0.0,0.0,1.1510862725349633,0.0,0.0,0.0,0.0,0.0
495_449,0.0,0.0,0.0,0.0,1.1528502697447558,0.0,0.0,0.0,0.0,-0.006746386399794766
496_143,0.0,0.0,0.0,0.0,1.1532913515045082,0.0,0.0,0.0,0.0,-0.026729104112281975
497_496,0.0,0.0,0.0,0.0,1.1413253536545056,0.0,0.0,0.0,0.0,0.03886321862816039
498_496,0.0,0.0,0.0,0.0,1.1429643968079028,0.0,0.0,0.0,0.0,0.02119425392987198
500_489,0.0,0.0,0.0,0.0,1.1780498455706032,0.0,0.0,0.0,0.0,-0.0021003260727961645
